L6/1726522/Chaves.dss
! ==========================================================
! CHAVES — geradas de UNSEMT (Line com Switch=Y)
! ==========================================================
! 24 chave(s) omitida(s): os dois PACs fora da rede de MT deste alimentador, o que criaria ilha flutuante — ex.: 343602110, 11851996, 11851982
New Line.342982871 Phases=3 Bus1=node_831043971.1.2.3 Bus2=node_831043972.1.2.3 Switch=Y r1=1e-4 x1=1e-4 r0=1e-4 x0=1e-4 normamps=9999
New Line.1684527704 Phases=3 Bus1=node_2009549261.1.2.3 Bus2=node_2009549401.1.2.3 Switch=Y r1=1e-4 x1=1e-4 r0=1e-4 x0=1e-4 normamps=9999
New Line.341771363 Phases=3 Bus1=node_536015195.1.2.3 Bus2=node_536015196.1.2.3 Switch=Y r1=1e-4 x1=1e-4 r0=1e-4 x0=1e-4 normamps=9999
New Line.1805210556 Phases=1 Bus1=node_2793502508.1 Bus2=node_2793502509.1 Switch=Y r1=1e-4 x1=1e-4 r0=1e-4 x0=1e-4 normamps=9999
New Line.1249796206 Phases=3 Bus1=node_1547977227.1.2.3 Bus2=node_1547977460.1.2.3 Switch=Y r1=1e-4 x1=1e-4 r0=1e-4 x0=1e-4 normamps=9999
New Line.1249796291 Phases=3 Bus1=node_1547976960.1.2.3 Bus2=node_1547977580.1.2.3 Switch=Y r1=1e-4 x1=1e-4 r0=1e-4 x0=1e-4 normamps=9999
New Line.1500370835 Phases=3 Bus1=node_438404388.1.2.3 Bus2=node_1808680043.1.2.3 Switch=Y r1=1e-4 x1=1e-4 r0=1e-4 x0=1e-4 normamps=9999
New Line.347519272 Phases=3 Bus1=node_542507295.1.2.3 Bus2=node_542507296.1.2.3 Switch=Y r1=1e-4 x1=1e-4 r0=1e-4 x0=1e-4 normamps=9999
New Line.1356638087 Phases=3 Bus1=node_1650575312.1.2.3 Bus2=node_1650575332.1.2.3 Switch=Y r1=1e-4 x1=1e-4 r0=1e-4 x0=1e-4 normamps=9999
New Line.1577594376 Phases=1 Bus1=node_1897338741.1 Bus2=node_2793502309.1 Switch=Y r1=1e-4 x1=1e-4 r0=1e-4 x0=1e-4 normamps=9999
New Line.2191430073 Phases=3 Bus1=node_438401313.1.2.3 Bus2=node_2531832668.1.2.3 Switch=Y r1=1e-4 x1=1e-4 r0=1e-4 x0=1e-4 normamps=9999
New Line.342397288 Phases=1 Bus1=node_536315605.1 Bus2=node_536315606.1 Switch=Y r1=1e-4 x1=1e-4 r0=1e-4 x0=1e-4 normamps=9999
New Line.343601661 Phases=3 Bus1=node_440706461.1.2.3 Bus2=node_2889536436.1.2.3 Switch=Y r1=1e-4 x1=1e-4 r0=1e-4 x0=1e-4 normamps=9999
New Line.343937199 Phases=3 Bus1=node_538247693.1.2.3 Bus2=node_538247694.1.2.3 Switch=Y r1=1e-4 x1=1e-4 r0=1e-4 x0=1e-4 normamps=9999
New Line.342398930 Phases=3 Bus1=node_536448862.1.2.3 Bus2=node_536448863.1.2.3 Switch=Y r1=1e-4 x1=1e-4 r0=1e-4 x0=1e-4 normamps=9999
New Line.341769995 Phases=3 Bus1=node_424067922.1.2.3 Bus2=node_2832252080.1.2.3 Switch=Y r1=1e-4 x1=1e-4 r0=1e-4 x0=1e-4 normamps=9999
New Line.342981643 Phases=3 Bus1=node_536955578.1.2.3 Bus2=node_536955579.1.2.3 Switch=Y r1=1e-4 x1=1e-4 r0=1e-4 x0=1e-4 normamps=9999
New Line.342397332 Phases=3 Bus1=node_2827406099.1.2.3 Bus2=node_2808210875.1.2.3 Switch=Y r1=1e-4 x1=1e-4 r0=1e-4 x0=1e-4 normamps=9999
New Line.343669065 Phases=3 Bus1=node_537856882.1.2.3 Bus2=node_537856881.1.2.3 Switch=Y r1=1e-4 x1=1e-4 r0=1e-4 x0=1e-4 normamps=9999
New Line.343854465 Phases=3 Bus1=node_1647639084.1.2.3 Bus2=node_1647639108.1.2.3 Switch=Y r1=1e-4 x1=1e-4 r0=1e-4 x0=1e-4 normamps=9999
New Line.343392729 Phases=3 Bus1=node_537312047.1.2.3 Bus2=node_537312048.1.2.3 Switch=Y r1=1e-4 x1=1e-4 r0=1e-4 x0=1e-4 normamps=9999
New Line.343267067 Phases=3 Bus1=node_537045181.1.2.3 Bus2=node_537045182.1.2.3 Switch=Y r1=1e-4 x1=1e-4 r0=1e-4 x0=1e-4 normamps=9999
New Line.347889570 Phases=3 Bus1=100_347889548.1.2.3 Bus2=100_347889569.1.2.3 Switch=Y r1=1e-4 x1=1e-4 r0=1e-4 x0=1e-4 normamps=9999
New Line.347889579 Phases=3 Bus1=100_347889548.1.2.3 Bus2=100_347889569.1.2.3 Switch=Y r1=1e-4 x1=1e-4 r0=1e-4 x0=1e-4 normamps=9999
New Line.342981142 Phases=3 Bus1=node_536954241.1.2.3 Bus2=node_536954242.1.2.3 Switch=Y r1=1e-4 x1=1e-4 r0=1e-4 x0=1e-4 normamps=9999
New Line.539760139 Phases=3 Bus1=100_539760153.1.2.3 Bus2=100_539760152.1.2.3 Switch=Y r1=1e-4 x1=1e-4 r0=1e-4 x0=1e-4 normamps=9999
New Line.1228236263 Phases=3 Bus1=100_1228236275.1.2.3 Bus2=100_1228236276.1.2.3 Switch=Y r1=1e-4 x1=1e-4 r0=1e-4 x0=1e-4 normamps=9999
New Line.1228235721 Phases=3 Bus1=node_1524986856.1.2.3 Bus2=node_1524986948.1.2.3 Switch=Y r1=1e-4 x1=1e-4 r0=1e-4 x0=1e-4 normamps=9999
New Line.443407033 Phases=3 Bus1=node_437386190.1.2.3 Bus2=node_712512011.1.2.3 Switch=Y r1=1e-4 x1=1e-4 r0=1e-4 x0=1e-4 normamps=9999
New Line.1228236270 Phases=3 Bus1=100_1228236275.1.2.3 Bus2=100_1228236276.1.2.3 Switch=Y r1=1e-4 x1=1e-4 r0=1e-4 x0=1e-4 normamps=9999
New Line.744300524 Phases=3 Bus1=node_1017699519.1.2.3 Bus2=node_1017699520.1.2.3 Switch=Y r1=1e-4 x1=1e-4 r0=1e-4 x0=1e-4 normamps=9999
New Line.1661438793 Phases=3 Bus1=node_440709396.1.2.3 Bus2=node_1982853316.1.2.3 Switch=Y r1=1e-4 x1=1e-4 r0=1e-4 x0=1e-4 normamps=9999
New Line.343854754 Phases=3 Bus1=node_538246180.1.2.3 Bus2=node_538246179.1.2.3 Switch=Y r1=1e-4 x1=1e-4 r0=1e-4 x0=1e-4 normamps=9999
New Line.1653228664 Phases=3 Bus1=node_1973870261.1.2.3 Bus2=node_1973870262.1.2.3 Switch=Y r1=1e-4 x1=1e-4 r0=1e-4 x0=1e-4 normamps=9999
New Line.1657484288 Phases=3 Bus1=node_1978534324.1.2.3 Bus2=node_1978534302.1.2.3 Switch=Y r1=1e-4 x1=1e-4 r0=1e-4 x0=1e-4 normamps=9999
New Line.2593543650 Phases=3 Bus1=node_2764858851.1.2.3 Bus2=node_2764858869.1.2.3 Switch=Y r1=1e-4 x1=1e-4 r0=1e-4 x0=1e-4 normamps=9999
New Line.343490000 Phases=3 Bus1=node_440708921.1.2.3 Bus2=node_2764857197.1.2.3 Switch=Y r1=1e-4 x1=1e-4 r0=1e-4 x0=1e-4 normamps=9999
New Line.2706495604 Phases=3 Bus1=node_440865430.1.2.3 Bus2=node_2889536168.1.2.3 Switch=Y r1=1e-4 x1=1e-4 r0=1e-4 x0=1e-4 normamps=9999
New Line.1693888589 Phases=3 Bus1=node_2019648643.1.2.3 Bus2=node_2019648644.1.2.3 Switch=Y r1=1e-4 x1=1e-4 r0=1e-4 x0=1e-4 normamps=9999
New Line.2569461044 Phases=3 Bus1=node_438401462.1.2.3 Bus2=node_2719712618.1.2.3 Switch=Y r1=1e-4 x1=1e-4 r0=1e-4 x0=1e-4 normamps=9999
New Line.351752970 Phases=3 Bus1=100_351752960.1.2.3 Bus2=100_351752939.1.2.3 Switch=Y r1=1e-4 x1=1e-4 r0=1e-4 x0=1e-4 normamps=9999
New Line.2251118132 Phases=3 Bus1=node_2477404857.1.2.3 Bus2=node_2558124938.1.2.3 Switch=Y r1=1e-4 x1=1e-4 r0=1e-4 x0=1e-4 normamps=9999
New Line.2697423119 Phases=3 Bus1=node_440867914.1.2.3 Bus2=node_2876904797.1.2.3 Switch=Y r1=1e-4 x1=1e-4 r0=1e-4 x0=1e-4 normamps=9999
New Line.2706496058 Phases=3 Bus1=node_440709452.1.2.3 Bus2=node_2889536988.1.2.3 Switch=Y r1=1e-4 x1=1e-4 r0=1e-4 x0=1e-4 normamps=9999
New Line.2593542968 Phases=3 Bus1=node_440707576.1.2.3 Bus2=node_2764857640.1.2.3 Switch=Y r1=1e-4 x1=1e-4 r0=1e-4 x0=1e-4 normamps=9999
New Line.2251118153 Phases=3 Bus1=node_2477405386.1.2.3 Bus2=node_2558124959.1.2.3 Switch=Y r1=1e-4 x1=1e-4 r0=1e-4 x0=1e-4 normamps=9999
New Line.2561061979 Phases=3 Bus1=100_2561062033.1.2.3 Bus2=100_2561062032.1.2.3 Switch=Y r1=1e-4 x1=1e-4 r0=1e-4 x0=1e-4 normamps=9999
New Line.343854866 Phases=3 Bus1=node_2987172663.1.2.3 Bus2=node_2987172703.1.2.3 Switch=Y r1=1e-4 x1=1e-4 r0=1e-4 x0=1e-4 normamps=9999
New Line.2767974296 Phases=3 Bus1=node_2987173162.1.2.3 Bus2=node_2987173175.1.2.3 Switch=Y r1=1e-4 x1=1e-4 r0=1e-4 x0=1e-4 normamps=9999
New Line.2581259888 Phases=3 Bus1=node_440551088.1.2.3 Bus2=node_2918965622.1.2.3 Switch=Y r1=1e-4 x1=1e-4 r0=1e-4 x0=1e-4 normamps=9999
New Line.2767974613 Phases=3 Bus1=node_2987174171.1.2.3 Bus2=node_440866360.1.2.3 Switch=Y r1=1e-4 x1=1e-4 r0=1e-4 x0=1e-4 normamps=9999
New Line.343936847 Phases=3 Bus1=node_538247054.1.2.3 Bus2=node_538247055.1.2.3 Switch=Y r1=1e-4 x1=1e-4 r0=1e-4 x0=1e-4 normamps=9999
New Line.2724616136 Phases=3 Bus1=node_438403166.1.2.3 Bus2=node_2704597692.1.2.3 Switch=Y r1=1e-4 x1=1e-4 r0=1e-4 x0=1e-4 normamps=9999
New Line.2767974329 Phases=3 Bus1=node_440709047.1.2.3 Bus2=node_2987173295.1.2.3 Switch=Y r1=1e-4 x1=1e-4 r0=1e-4 x0=1e-4 normamps=9999
New Line.2553178817 Phases=3 Bus1=node_431155143.1.2.3 Bus2=node_2831280038.1.2.3 Switch=Y r1=1e-4 x1=1e-4 r0=1e-4 x0=1e-4 normamps=9999
New Line.351753632 Phases=3 Bus1=100_2504934983.1.2.3 Bus2=100_2504934984.1.2.3 Switch=Y r1=1e-4 x1=1e-4 r0=1e-4 x0=1e-4 normamps=9999
New Line.351753623 Phases=3 Bus1=100_2504934983.1.2.3 Bus2=100_2504934984.1.2.3 Switch=Y r1=1e-4 x1=1e-4 r0=1e-4 x0=1e-4 normamps=9999
New Line.343392237 Phases=3 Bus1=node_428706121.1.2.3 Bus2=node_2915828731.1.2.3 Switch=Y r1=1e-4 x1=1e-4 r0=1e-4 x0=1e-4 normamps=9999
New Line.342752085 Phases=3 Bus1=node_536579703.1.2.3 Bus2=node_536579704.1.2.3 Switch=Y r1=1e-4 x1=1e-4 r0=1e-4 x0=1e-4 normamps=9999
New Line.342398293 Phases=3 Bus1=node_536447159.1.2.3 Bus2=node_536447160.1.2.3 Switch=Y r1=1e-4 x1=1e-4 r0=1e-4 x0=1e-4 normamps=9999
New Line.343394059 Phases=3 Bus1=node_537370349.1.2.3 Bus2=node_537370350.1.2.3 Switch=Y r1=1e-4 x1=1e-4 r0=1e-4 x0=1e-4 normamps=9999
New Line.341770178 Phases=3 Bus1=node_536012686.1.2.3 Bus2=node_536012687.1.2.3 Switch=Y r1=1e-4 x1=1e-4 r0=1e-4 x0=1e-4 normamps=9999
New Line.343393285 Phases=3 Bus1=node_537368925.1.2.3 Bus2=node_537368926.1.2.3 Switch=Y r1=1e-4 x1=1e-4 r0=1e-4 x0=1e-4 normamps=9999
New Line.343670288 Phases=3 Bus1=node_537910738.1.2.3 Bus2=node_537910739.1.2.3 Switch=Y r1=1e-4 x1=1e-4 r0=1e-4 x0=1e-4 normamps=9999
New Line.343784334 Phases=3 Bus1=node_538106912.1.2.3 Bus2=node_538106911.1.2.3 Switch=Y r1=1e-4 x1=1e-4 r0=1e-4 x0=1e-4 normamps=9999
New Line.343730417 Phases=3 Bus1=node_537910759.1.2.3 Bus2=node_537910760.1.2.3 Switch=Y r1=1e-4 x1=1e-4 r0=1e-4 x0=1e-4 normamps=9999
New Line.342983033 Phases=3 Bus1=node_537044051.1.2.3 Bus2=node_537044052.1.2.3 Switch=Y r1=1e-4 x1=1e-4 r0=1e-4 x0=1e-4 normamps=9999
New Line.342752044 Phases=3 Bus1=node_536579622.1.2.3 Bus2=node_536579623.1.2.3 Switch=Y r1=1e-4 x1=1e-4 r0=1e-4 x0=1e-4 normamps=9999
New Line.341769790 Phases=3 Bus1=node_1176342264.1.2.3 Bus2=node_1176342280.1.2.3 Switch=Y r1=1e-4 x1=1e-4 r0=1e-4 x0=1e-4 normamps=9999
New Line.343392162 Phases=3 Bus1=node_2915828408.1.2.3 Bus2=node_2915828426.1.2.3 Switch=Y r1=1e-4 x1=1e-4 r0=1e-4 x0=1e-4 normamps=9999
New Line.342982635 Phases=3 Bus1=node_537043323.1.2.3 Bus2=node_537043324.1.2.3 Switch=Y r1=1e-4 x1=1e-4 r0=1e-4 x0=1e-4 normamps=9999
New Line.342751908 Phases=3 Bus1=node_536579338.1.2.3 Bus2=node_536579339.1.2.3 Switch=Y r1=1e-4 x1=1e-4 r0=1e-4 x0=1e-4 normamps=9999
New Line.343602748 Phases=3 Bus1=node_537657253.1.2.3 Bus2=node_537657254.1.2.3 Switch=Y r1=1e-4 x1=1e-4 r0=1e-4 x0=1e-4 normamps=9999
New Line.343394527 Phases=3 Bus1=node_435184617.1.2.3 Bus2=node_692192928.1.2.3 Switch=Y r1=1e-4 x1=1e-4 r0=1e-4 x0=1e-4 normamps=9999
New Line.149067528 Phases=3 Bus1=node_218070953.1.2.3 Bus2=node_218070954.1.2.3 Switch=Y r1=1e-4 x1=1e-4 r0=1e-4 x0=1e-4 normamps=9999
New Line.343854007 Phases=3 Bus1=node_538244482.1.2.3 Bus2=node_538244483.1.2.3 Switch=Y r1=1e-4 x1=1e-4 r0=1e-4 x0=1e-4 normamps=9999
New Line.343393093 Phases=3 Bus1=node_537368593.1.2.3 Bus2=node_537368594.1.2.3 Switch=Y r1=1e-4 x1=1e-4 r0=1e-4 x0=1e-4 normamps=9999
New Line.342982020 Phases=3 Bus1=node_537042172.1.2.3 Bus2=node_537042171.1.2.3 Switch=Y r1=1e-4 x1=1e-4 r0=1e-4 x0=1e-4 normamps=9999
New Line.343602043 Phases=3 Bus1=node_1913827257.1.2.3 Bus2=node_1913827258.1.2.3 Switch=Y r1=1e-4 x1=1e-4 r0=1e-4 x0=1e-4 normamps=9999
New Line.343393164 Phases=3 Bus1=node_537368710.1.2.3 Bus2=node_537368711.1.2.3 Switch=Y r1=1e-4 x1=1e-4 r0=1e-4 x0=1e-4 normamps=9999
New Line.343393174 Phases=3 Bus1=node_537368728.1.2.3 Bus2=node_537368729.1.2.3 Switch=Y r1=1e-4 x1=1e-4 r0=1e-4 x0=1e-4 normamps=9999
New Line.342398303 Phases=3 Bus1=node_536447177.1.2.3 Bus2=node_536447178.1.2.3 Switch=Y r1=1e-4 x1=1e-4 r0=1e-4 x0=1e-4 normamps=9999
New Line.343602056 Phases=3 Bus1=node_537595868.1.2.3 Bus2=node_537595867.1.2.3 Switch=Y r1=1e-4 x1=1e-4 r0=1e-4 x0=1e-4 normamps=9999
New Line.343783417 Phases=3 Bus1=node_538049427.1.2.3 Bus2=node_538049428.1.2.3 Switch=Y r1=1e-4 x1=1e-4 r0=1e-4 x0=1e-4 normamps=9999
New Line.342751613 Phases=3 Bus1=node_536578808.1.2.3 Bus2=node_536578807.1.2.3 Switch=Y r1=1e-4 x1=1e-4 r0=1e-4 x0=1e-4 normamps=9999
New Line.343854766 Phases=3 Bus1=node_538246197.1.2.3 Bus2=node_538246198.1.2.3 Switch=Y r1=1e-4 x1=1e-4 r0=1e-4 x0=1e-4 normamps=9999
New Line.342982031 Phases=3 Bus1=node_537042195.1.2.3 Bus2=node_537042194.1.2.3 Switch=Y r1=1e-4 x1=1e-4 r0=1e-4 x0=1e-4 normamps=9999
New Line.343783427 Phases=3 Bus1=node_538049446.1.2.3 Bus2=node_538049445.1.2.3 Switch=Y r1=1e-4 x1=1e-4 r0=1e-4 x0=1e-4 normamps=9999
New Line.342751643 Phases=3 Bus1=node_536578861.1.2.3 Bus2=node_536578862.1.2.3 Switch=Y r1=1e-4 x1=1e-4 r0=1e-4 x0=1e-4 normamps=9999
New Line.343602141 Phases=3 Bus1=node_537656139.1.2.3 Bus2=node_537656138.1.2.3 Switch=Y r1=1e-4 x1=1e-4 r0=1e-4 x0=1e-4 normamps=9999
New Line.343393207 Phases=3 Bus1=node_537368787.1.2.3 Bus2=node_537368788.1.2.3 Switch=Y r1=1e-4 x1=1e-4 r0=1e-4 x0=1e-4 normamps=9999
New Line.341769259 Phases=3 Bus1=node_534340633.1.2.3 Bus2=node_534340634.1.2.3 Switch=Y r1=1e-4 x1=1e-4 r0=1e-4 x0=1e-4 normamps=9999
New Line.343602067 Phases=3 Bus1=node_537595888.1.2.3 Bus2=node_537595889.1.2.3 Switch=Y r1=1e-4 x1=1e-4 r0=1e-4 x0=1e-4 normamps=9999
New Line.343669412 Phases=3 Bus1=node_537857542.1.2.3 Bus2=node_537857543.1.2.3 Switch=Y r1=1e-4 x1=1e-4 r0=1e-4 x0=1e-4 normamps=9999
New Line.341769269 Phases=3 Bus1=node_534340651.1.2.3 Bus2=node_534340652.1.2.3 Switch=Y r1=1e-4 x1=1e-4 r0=1e-4 x0=1e-4 normamps=9999
New Line.343854776 Phases=3 Bus1=node_538246215.1.2.3 Bus2=node_538246216.1.2.3 Switch=Y r1=1e-4 x1=1e-4 r0=1e-4 x0=1e-4 normamps=9999
New Line.341769279 Phases=3 Bus1=node_534340669.1.2.3 Bus2=node_534340670.1.2.3 Switch=Y r1=1e-4 x1=1e-4 r0=1e-4 x0=1e-4 normamps=9999
New Line.343393184 Phases=3 Bus1=node_537368746.1.2.3 Bus2=node_537368747.1.2.3 Switch=Y r1=1e-4 x1=1e-4 r0=1e-4 x0=1e-4 normamps=9999
New Line.342982130 Phases=3 Bus1=node_537042365.1.2.3 Bus2=node_537042366.1.2.3 Switch=Y r1=1e-4 x1=1e-4 r0=1e-4 x0=1e-4 normamps=9999
New Line.351753676 Phases=3 Bus1=100_351753666.1.2.3 Bus2=100_351753645.1.2.3 Switch=Y r1=1e-4 x1=1e-4 r0=1e-4 x0=1e-4 normamps=9999
New Line.343393105 Phases=3 Bus1=node_537368611.1.2.3 Bus2=node_537368612.1.2.3 Switch=Y r1=1e-4 x1=1e-4 r0=1e-4 x0=1e-4 normamps=9999
New Line.343854786 Phases=3 Bus1=node_538246233.1.2.3 Bus2=node_538246234.1.2.3 Switch=Y r1=1e-4 x1=1e-4 r0=1e-4 x0=1e-4 normamps=9999
New Line.343602078 Phases=3 Bus1=node_537595911.1.2.3 Bus2=node_537595912.1.2.3 Switch=Y r1=1e-4 x1=1e-4 r0=1e-4 x0=1e-4 normamps=9999
New Line.343854798 Phases=3 Bus1=node_538246252.1.2.3 Bus2=node_538246251.1.2.3 Switch=Y r1=1e-4 x1=1e-4 r0=1e-4 x0=1e-4 normamps=9999
New Line.343669488 Phases=3 Bus1=node_537857683.1.2.3 Bus2=node_537857682.1.2.3 Switch=Y r1=1e-4 x1=1e-4 r0=1e-4 x0=1e-4 normamps=9999
New Line.343602152 Phases=3 Bus1=node_537656160.1.2.3 Bus2=node_537656159.1.2.3 Switch=Y r1=1e-4 x1=1e-4 r0=1e-4 x0=1e-4 normamps=9999
New Line.342982140 Phases=3 Bus1=node_537042383.1.2.3 Bus2=node_537042384.1.2.3 Switch=Y r1=1e-4 x1=1e-4 r0=1e-4 x0=1e-4 normamps=9999
New Line.342982043 Phases=3 Bus1=node_537042219.1.2.3 Bus2=node_537042218.1.2.3 Switch=Y r1=1e-4 x1=1e-4 r0=1e-4 x0=1e-4 normamps=9999
New Line.343783441 Phases=3 Bus1=node_538049472.1.2.3 Bus2=node_538049471.1.2.3 Switch=Y r1=1e-4 x1=1e-4 r0=1e-4 x0=1e-4 normamps=9999
New Line.343669422 Phases=3 Bus1=node_537857561.1.2.3 Bus2=node_537857560.1.2.3 Switch=Y r1=1e-4 x1=1e-4 r0=1e-4 x0=1e-4 normamps=9999
New Line.343669794 Phases=3 Bus1=node_537909768.1.2.3 Bus2=node_537909769.1.2.3 Switch=Y r1=1e-4 x1=1e-4 r0=1e-4 x0=1e-4 normamps=9999
New Line.351753500 Phases=3 Bus1=100_351753469.1.2.3 Bus2=100_351753490.1.2.3 Switch=Y r1=1e-4 x1=1e-4 r0=1e-4 x0=1e-4 normamps=9999
New Line.343854811 Phases=3 Bus1=node_538246272.1.2.3 Bus2=node_538246273.1.2.3 Switch=Y r1=1e-4 x1=1e-4 r0=1e-4 x0=1e-4 normamps=9999
New Line.342751623 Phases=3 Bus1=node_536578825.1.2.3 Bus2=node_536578826.1.2.3 Switch=Y r1=1e-4 x1=1e-4 r0=1e-4 x0=1e-4 normamps=9999
New Line.341769289 Phases=3 Bus1=node_534340687.1.2.3 Bus2=node_534340688.1.2.3 Switch=Y r1=1e-4 x1=1e-4 r0=1e-4 x0=1e-4 normamps=9999
New Line.343669434 Phases=3 Bus1=node_537857586.1.2.3 Bus2=node_537857587.1.2.3 Switch=Y r1=1e-4 x1=1e-4 r0=1e-4 x0=1e-4 normamps=9999
New Line.343602100 Phases=3 Bus1=node_537656064.1.2.3 Bus2=node_537656063.1.2.3 Switch=Y r1=1e-4 x1=1e-4 r0=1e-4 x0=1e-4 normamps=9999
New Line.342982624 Phases=3 Bus1=node_537043302.1.2.3 Bus2=node_537043303.1.2.3 Switch=Y r1=1e-4 x1=1e-4 r0=1e-4 x0=1e-4 normamps=9999
New Line.342982150 Phases=3 Bus1=node_537042401.1.2.3 Bus2=node_537042402.1.2.3 Switch=Y r1=1e-4 x1=1e-4 r0=1e-4 x0=1e-4 normamps=9999
New Line.343784769 Phases=3 Bus1=node_538107666.1.2.3 Bus2=node_538107667.1.2.3 Switch=Y r1=1e-4 x1=1e-4 r0=1e-4 x0=1e-4 normamps=9999
New Line.351753667 Phases=3 Bus1=100_351753666.1.2.3 Bus2=100_351753645.1.2.3 Switch=Y r1=1e-4 x1=1e-4 r0=1e-4 x0=1e-4 normamps=9999
New Line.342751664 Phases=3 Bus1=node_536578900.1.2.3 Bus2=node_536578901.1.2.3 Switch=Y r1=1e-4 x1=1e-4 r0=1e-4 x0=1e-4 normamps=9999
New Line.347796887 Phases=3 Bus1=node_542870742.1.2.3 Bus2=node_542870743.1.2.3 Switch=Y r1=1e-4 x1=1e-4 r0=1e-4 x0=1e-4 normamps=9999
New Line.342982054 Phases=3 Bus1=node_537042239.1.2.3 Bus2=node_537042240.1.2.3 Switch=Y r1=1e-4 x1=1e-4 r0=1e-4 x0=1e-4 normamps=9999
New Line.343669444 Phases=3 Bus1=node_537857605.1.2.3 Bus2=node_537857604.1.2.3 Switch=Y r1=1e-4 x1=1e-4 r0=1e-4 x0=1e-4 normamps=9999
New Line.343393117 Phases=3 Bus1=node_537368630.1.2.3 Bus2=node_537368629.1.2.3 Switch=Y r1=1e-4 x1=1e-4 r0=1e-4 x0=1e-4 normamps=9999
New Line.343783818 Phases=3 Bus1=node_538050154.1.2.3 Bus2=node_538050155.1.2.3 Switch=Y r1=1e-4 x1=1e-4 r0=1e-4 x0=1e-4 normamps=9999
New Line.343393634 Phases=3 Bus1=node_537369572.1.2.3 Bus2=node_537369573.1.2.3 Switch=Y r1=1e-4 x1=1e-4 r0=1e-4 x0=1e-4 normamps=9999
New Line.343785564 Phases=1 Bus1=node_538109527.1 Bus2=node_538109528.1 Switch=Y r1=1e-4 x1=1e-4 r0=1e-4 x0=1e-4 normamps=9999
New Line.343785570 Phases=3 Bus1=node_538109545.1.2.3 Bus2=node_538109546.1.2.3 Switch=Y r1=1e-4 x1=1e-4 r0=1e-4 x0=1e-4 normamps=9999
New Line.343783848 Phases=3 Bus1=node_538050208.1.2.3 Bus2=node_538050209.1.2.3 Switch=Y r1=1e-4 x1=1e-4 r0=1e-4 x0=1e-4 normamps=9999
New Line.343669862 Phases=3 Bus1=node_537909901.1.2.3 Bus2=node_537909900.1.2.3 Switch=Y r1=1e-4 x1=1e-4 r0=1e-4 x0=1e-4 normamps=9999
New Line.342982906 Phases=3 Bus1=node_537043832.1.2.3 Bus2=node_537043833.1.2.3 Switch=Y r1=1e-4 x1=1e-4 r0=1e-4 x0=1e-4 normamps=9999
New Line.343782560 Phases=3 Bus1=node_538047328.1.2.3 Bus2=node_538047329.1.2.3 Switch=Y r1=1e-4 x1=1e-4 r0=1e-4 x0=1e-4 normamps=9999
New Line.341768238 Phases=3 Bus1=node_534338246.1.2.3 Bus2=node_534338247.1.2.3 Switch=Y r1=1e-4 x1=1e-4 r0=1e-4 x0=1e-4 normamps=9999
New Line.342751633 Phases=3 Bus1=node_536578843.1.2.3 Bus2=node_536578844.1.2.3 Switch=Y r1=1e-4 x1=1e-4 r0=1e-4 x0=1e-4 normamps=9999
New Line.343854823 Phases=3 Bus1=node_538246290.1.2.3 Bus2=node_538246291.1.2.3 Switch=Y r1=1e-4 x1=1e-4 r0=1e-4 x0=1e-4 normamps=9999
New Line.342982064 Phases=3 Bus1=node_537042257.1.2.3 Bus2=node_537042258.1.2.3 Switch=Y r1=1e-4 x1=1e-4 r0=1e-4 x0=1e-4 normamps=9999
New Line.341769763 Phases=3 Bus1=node_536011909.1.2.3 Bus2=node_536011910.1.2.3 Switch=Y r1=1e-4 x1=1e-4 r0=1e-4 x0=1e-4 normamps=9999
New Line.343393195 Phases=3 Bus1=node_537368769.1.2.3 Bus2=node_537368770.1.2.3 Switch=Y r1=1e-4 x1=1e-4 r0=1e-4 x0=1e-4 normamps=9999
New Line.343783506 Phases=3 Bus1=node_538049577.1.2.3 Bus2=node_538049576.1.2.3 Switch=Y r1=1e-4 x1=1e-4 r0=1e-4 x0=1e-4 normamps=9999
New Line.342751676 Phases=3 Bus1=node_536578919.1.2.3 Bus2=node_536578918.1.2.3 Switch=Y r1=1e-4 x1=1e-4 r0=1e-4 x0=1e-4 normamps=9999
New Line.351754514 Phases=3 Bus1=100_351754504.1.2.3 Bus2=100_351754483.1.2.3 Switch=Y r1=1e-4 x1=1e-4 r0=1e-4 x0=1e-4 normamps=9999
New Line.343602120 Phases=3 Bus1=node_537656100.1.2.3 Bus2=node_537656099.1.2.3 Switch=Y r1=1e-4 x1=1e-4 r0=1e-4 x0=1e-4 normamps=9999
New Line.343393128 Phases=3 Bus1=node_537368650.1.2.3 Bus2=node_537368651.1.2.3 Switch=Y r1=1e-4 x1=1e-4 r0=1e-4 x0=1e-4 normamps=9999
New Line.343393612 Phases=3 Bus1=node_537369537.1.2.3 Bus2=node_537369536.1.2.3 Switch=Y r1=1e-4 x1=1e-4 r0=1e-4 x0=1e-4 normamps=9999
New Line.341769773 Phases=3 Bus1=node_536011927.1.2.3 Bus2=node_536011928.1.2.3 Switch=Y r1=1e-4 x1=1e-4 r0=1e-4 x0=1e-4 normamps=9999
New Line.342982074 Phases=3 Bus1=node_537042275.1.2.3 Bus2=node_537042276.1.2.3 Switch=Y r1=1e-4 x1=1e-4 r0=1e-4 x0=1e-4 normamps=9999
New Line.343783450 Phases=3 Bus1=node_538049486.1.2.3 Bus2=node_538049487.1.2.3 Switch=Y r1=1e-4 x1=1e-4 r0=1e-4 x0=1e-4 normamps=9999
New Line.343783829 Phases=3 Bus1=node_538050169.1.2.3 Bus2=node_538050170.1.2.3 Switch=Y r1=1e-4 x1=1e-4 r0=1e-4 x0=1e-4 normamps=9999
New Line.343602584 Phases=3 Bus1=node_537656962.1.2.3 Bus2=node_537656963.1.2.3 Switch=Y r1=1e-4 x1=1e-4 r0=1e-4 x0=1e-4 normamps=9999
New Line.351753132 Phases=3 Bus1=100_351753101.1.2.3 Bus2=100_351753122.1.2.3 Switch=Y r1=1e-4 x1=1e-4 r0=1e-4 x0=1e-4 normamps=9999
New Line.343669455 Phases=3 Bus1=node_537857625.1.2.3 Bus2=node_537857626.1.2.3 Switch=Y r1=1e-4 x1=1e-4 r0=1e-4 x0=1e-4 normamps=9999
New Line.343668391 Phases=3 Bus1=node_537855096.1.2.3 Bus2=node_537855097.1.2.3 Switch=Y r1=1e-4 x1=1e-4 r0=1e-4 x0=1e-4 normamps=9999
New Line.343395448 Phases=3 Bus1=node_537441970.1.2.3 Bus2=node_537441971.1.2.3 Switch=Y r1=1e-4 x1=1e-4 r0=1e-4 x0=1e-4 normamps=9999
New Line.343854887 Phases=3 Bus1=node_424067957.1.2.3 Bus2=node_2832251912.1.2.3 Switch=Y r1=1e-4 x1=1e-4 r0=1e-4 x0=1e-4 normamps=9999
New Line.343604205 Phases=1 Bus1=node_537660235.3 Bus2=node_537660236.3 Switch=Y r1=1e-4 x1=1e-4 r0=1e-4 x0=1e-4 normamps=9999
New Line.342751689 Phases=3 Bus1=node_536578939.1.2.3 Bus2=node_536578940.1.2.3 Switch=Y r1=1e-4 x1=1e-4 r0=1e-4 x0=1e-4 normamps=9999
New Line.342982160 Phases=3 Bus1=node_537042419.1.2.3 Bus2=node_537042420.1.2.3 Switch=Y r1=1e-4 x1=1e-4 r0=1e-4 x0=1e-4 normamps=9999
New Line.347825893 Phases=3 Bus1=100_347825862.1.2.3 Bus2=100_347825883.1.2.3 Switch=Y r1=1e-4 x1=1e-4 r0=1e-4 x0=1e-4 normamps=9999
New Line.343393603 Phases=3 Bus1=node_537369522.1.2.3 Bus2=node_537369521.1.2.3 Switch=Y r1=1e-4 x1=1e-4 r0=1e-4 x0=1e-4 normamps=9999
New Line.341769198 Phases=3 Bus1=node_534340525.1.2.3 Bus2=node_534340524.1.2.3 Switch=Y r1=1e-4 x1=1e-4 r0=1e-4 x0=1e-4 normamps=9999
New Line.342751566 Phases=3 Bus1=node_536578732.1.2.3 Bus2=node_536578733.1.2.3 Switch=Y r1=1e-4 x1=1e-4 r0=1e-4 x0=1e-4 normamps=9999
New Line.342982007 Phases=3 Bus1=node_537042150.1.2.3 Bus2=node_537042151.1.2.3 Switch=Y r1=1e-4 x1=1e-4 r0=1e-4 x0=1e-4 normamps=9999
New Line.342751578 Phases=3 Bus1=node_536578750.1.2.3 Bus2=node_536578751.1.2.3 Switch=Y r1=1e-4 x1=1e-4 r0=1e-4 x0=1e-4 normamps=9999
New Line.342751590 Phases=3 Bus1=node_536578768.1.2.3 Bus2=node_536578769.1.2.3 Switch=Y r1=1e-4 x1=1e-4 r0=1e-4 x0=1e-4 normamps=9999
New Line.342982084 Phases=3 Bus1=node_537042294.1.2.3 Bus2=node_537042293.1.2.3 Switch=Y r1=1e-4 x1=1e-4 r0=1e-4 x0=1e-4 normamps=9999
New Line.342982096 Phases=3 Bus1=node_537042311.1.2.3 Bus2=node_537042312.1.2.3 Switch=Y r1=1e-4 x1=1e-4 r0=1e-4 x0=1e-4 normamps=9999
New Line.343731683 Phases=3 Bus1=node_537913389.1.2.3 Bus2=node_537913390.1.2.3 Switch=Y r1=1e-4 x1=1e-4 r0=1e-4 x0=1e-4 normamps=9999
New Line.343854898 Phases=3 Bus1=node_538246425.1.2.3 Bus2=node_538246426.1.2.3 Switch=Y r1=1e-4 x1=1e-4 r0=1e-4 x0=1e-4 normamps=9999
New Line.341769341 Phases=3 Bus1=node_534340777.1.2.3 Bus2=node_534340778.1.2.3 Switch=Y r1=1e-4 x1=1e-4 r0=1e-4 x0=1e-4 normamps=9999
New Line.343602162 Phases=3 Bus1=node_537656177.1.2.3 Bus2=node_537656178.1.2.3 Switch=Y r1=1e-4 x1=1e-4 r0=1e-4 x0=1e-4 normamps=9999
New Line.351754558 Phases=3 Bus1=100_351754527.1.2.3 Bus2=100_351754548.1.2.3 Switch=Y r1=1e-4 x1=1e-4 r0=1e-4 x0=1e-4 normamps=9999
New Line.351753412 Phases=3 Bus1=100_351753381.1.2.3 Bus2=100_351753402.1.2.3 Switch=Y r1=1e-4 x1=1e-4 r0=1e-4 x0=1e-4 normamps=9999
New Line.351753544 Phases=3 Bus1=100_351753534.1.2.3 Bus2=100_351753513.1.2.3 Switch=Y r1=1e-4 x1=1e-4 r0=1e-4 x0=1e-4 normamps=9999
New Line.343854732 Phases=3 Bus1=node_538246143.1.2.3 Bus2=node_538246144.1.2.3 Switch=Y r1=1e-4 x1=1e-4 r0=1e-4 x0=1e-4 normamps=9999
New Line.343783385 Phases=3 Bus1=node_538049374.1.2.3 Bus2=node_538049373.1.2.3 Switch=Y r1=1e-4 x1=1e-4 r0=1e-4 x0=1e-4 normamps=9999
New Line.343854843 Phases=3 Bus1=node_538246326.1.2.3 Bus2=node_538246327.1.2.3 Switch=Y r1=1e-4 x1=1e-4 r0=1e-4 x0=1e-4 normamps=9999
New Line.343392719 Phases=3 Bus1=node_537312029.1.2.3 Bus2=node_537312030.1.2.3 Switch=Y r1=1e-4 x1=1e-4 r0=1e-4 x0=1e-4 normamps=9999
New Line.343602131 Phases=3 Bus1=node_537656120.1.2.3 Bus2=node_537656121.1.2.3 Switch=Y r1=1e-4 x1=1e-4 r0=1e-4 x0=1e-4 normamps=9999
New Line.343783460 Phases=3 Bus1=node_538049504.1.2.3 Bus2=node_538049505.1.2.3 Switch=Y r1=1e-4 x1=1e-4 r0=1e-4 x0=1e-4 normamps=9999
New Line.342982645 Phases=3 Bus1=node_537043341.1.2.3 Bus2=node_537043342.1.2.3 Switch=Y r1=1e-4 x1=1e-4 r0=1e-4 x0=1e-4 normamps=9999
New Line.351753368 Phases=3 Bus1=100_351753358.1.2.3 Bus2=100_351753337.1.2.3 Switch=Y r1=1e-4 x1=1e-4 r0=1e-4 x0=1e-4 normamps=9999
New Line.351753588 Phases=3 Bus1=100_351753557.1.2.3 Bus2=100_351753578.1.2.3 Switch=Y r1=1e-4 x1=1e-4 r0=1e-4 x0=1e-4 normamps=9999
New Line.351752926 Phases=3 Bus1=100_351752895.1.2.3 Bus2=100_351752916.1.2.3 Switch=Y r1=1e-4 x1=1e-4 r0=1e-4 x0=1e-4 normamps=9999
New Line.351753896 Phases=3 Bus1=100_351753886.1.2.3 Bus2=100_351753865.1.2.3 Switch=Y r1=1e-4 x1=1e-4 r0=1e-4 x0=1e-4 normamps=9999
New Line.343393059 Phases=3 Bus1=node_537368537.1.2.3 Bus2=node_537368538.1.2.3 Switch=Y r1=1e-4 x1=1e-4 r0=1e-4 x0=1e-4 normamps=9999
New Line.343783398 Phases=3 Bus1=node_538049394.1.2.3 Bus2=node_538049395.1.2.3 Switch=Y r1=1e-4 x1=1e-4 r0=1e-4 x0=1e-4 normamps=9999
New Line.343493765 Phases=3 Bus1=node_537593595.1.2.3 Bus2=node_537593594.1.2.3 Switch=Y r1=1e-4 x1=1e-4 r0=1e-4 x0=1e-4 normamps=9999
New Line.342981030 Phases=3 Bus1=node_536953931.1.2.3 Bus2=node_536953932.1.2.3 Switch=Y r1=1e-4 x1=1e-4 r0=1e-4 x0=1e-4 normamps=9999
New Line.343669467 Phases=3 Bus1=node_537857644.1.2.3 Bus2=node_537857643.1.2.3 Switch=Y r1=1e-4 x1=1e-4 r0=1e-4 x0=1e-4 normamps=9999
New Line.343669782 Phases=3 Bus1=node_537909750.1.2.3 Bus2=node_537909751.1.2.3 Switch=Y r1=1e-4 x1=1e-4 r0=1e-4 x0=1e-4 normamps=9999
New Line.342751603 Phases=3 Bus1=node_536578789.1.2.3 Bus2=node_536578790.1.2.3 Switch=Y r1=1e-4 x1=1e-4 r0=1e-4 x0=1e-4 normamps=9999
New Line.343783472 Phases=3 Bus1=node_538049522.1.2.3 Bus2=node_538049523.1.2.3 Switch=Y r1=1e-4 x1=1e-4 r0=1e-4 x0=1e-4 normamps=9999
New Line.342981041 Phases=3 Bus1=node_536953952.1.2.3 Bus2=node_536953953.1.2.3 Switch=Y r1=1e-4 x1=1e-4 r0=1e-4 x0=1e-4 normamps=9999
New Line.343393622 Phases=3 Bus1=node_537369554.1.2.3 Bus2=node_537369555.1.2.3 Switch=Y r1=1e-4 x1=1e-4 r0=1e-4 x0=1e-4 normamps=9999
New Line.343854855 Phases=3 Bus1=node_538246344.1.2.3 Bus2=node_538246345.1.2.3 Switch=Y r1=1e-4 x1=1e-4 r0=1e-4 x0=1e-4 normamps=9999
New Line.341771331 Phases=3 Bus1=node_536015141.1.2.3 Bus2=node_536015142.1.2.3 Switch=Y r1=1e-4 x1=1e-4 r0=1e-4 x0=1e-4 normamps=9999
New Line.343393071 Phases=3 Bus1=node_537368556.1.2.3 Bus2=node_537368555.1.2.3 Switch=Y r1=1e-4 x1=1e-4 r0=1e-4 x0=1e-4 normamps=9999
New Line.341769743 Phases=3 Bus1=node_536011873.1.2.3 Bus2=node_536011874.1.2.3 Switch=Y r1=1e-4 x1=1e-4 r0=1e-4 x0=1e-4 normamps=9999
...
